327
 generated by VMD
 O        -1.206632        4.999317       -1.278255
 H        -1.559968        4.355824       -0.634504
 H        -0.326982        5.231721       -0.875180
 O         4.451186        2.893468        9.623828
 H         4.598284        2.799849       10.587971
 H         3.987592        1.929778        9.459547
 O         1.946634        3.968823        5.850164
 H         1.482224        3.562946        6.595140
 H         2.288947        3.177876        5.379575
 O         7.933581       13.572553       11.098722
 H         7.093173       13.787062       10.685877
 H         7.650759       13.507374       12.067824
 O        17.607601       15.149706        6.788170
 H        17.657244       14.142423        6.507450
 H        17.216043       15.566002        6.003065
 O         8.993937       11.029596       10.660056
 H         8.748474       10.711226        9.735021
 H         8.523959       11.971786       10.762955
 O        10.201358        8.999929       19.258421
 H         9.372503        8.501369       19.533344
 H        10.751054        8.399421       18.740519
 O         5.523389       14.524403       10.561416
 H         5.090587       14.889542        9.748739
 H         5.626684       15.316363       11.143058
 O         2.027085        1.645535       15.650599
 H         2.948879        1.980704       15.829339
 H         1.338467        2.234367       16.228697
 O         6.029346       16.034225        1.890762
 H         5.878147       15.272193        1.235506
 H         6.967886       15.872437        2.216178
 O         2.463001       10.376986        9.861478
 H         1.526578       10.334721       10.195181
 H         2.952599       11.169394       10.336328
 O        10.065544        7.554831        0.530485
 H        10.782609        7.222898       -0.065617
 H        10.437329        7.755584        1.419600
 O         0.489347        9.810913        7.093979
 H         1.432851        9.469182        6.920720
 H         0.290815        9.927323        6.137265
 O        14.805794        9.887618        4.185512
 H        13.937918       10.153021        4.622077
 H        15.201984       10.848479        3.992240
 O         8.912013       10.423714        7.864690
 H         9.701528        9.894304        8.233833
 H         9.279979       11.314800        7.537996
 O        13.424570       11.738516       14.558096
 H        13.475410       10.705203       14.502537
 H        12.575204       11.941920       15.082949
 O         5.734587        3.994373        5.839509
 H         5.724253        4.524503        4.950151
 H         5.572119        3.122384        5.424945
 O         1.365429        8.663027       13.684090
 H         1.772296        8.863335       12.784843
 H         0.383481        8.673706       13.660471
 O        11.866943        7.385149        2.875634
 H        12.580268        7.836754        2.372175
 H        12.417511        6.915609        3.539293
 O        18.531284       15.537547        9.193786
 H        18.207104       15.520764        8.233032
 H        17.924955       14.933678        9.675992
 O         6.833622        7.723450        2.614193
 H         7.251798        6.980045        2.072188
 H         5.836553        7.672115        2.461313
 O        15.158945        2.820428        8.097558
 H        15.594098        2.823160        8.971052
 H        14.822438        1.882534        7.899965
 O         7.781579        5.629071       16.503004
 H         7.738182        5.197247       15.529971
 H         8.787361        5.582402       16.620108
 O        16.880074        6.383999       17.351915
 H        16.175606        5.854580       17.842674
 H        16.721869        6.109838       16.394344
 O         9.459957       10.135843       15.074400
 H         9.661335        9.109806       15.169654
 H         8.628386       10.172460       15.588240
 O        10.127575        4.603145       12.780647
 H         9.348437        4.836720       13.327888
 H         9.691574        3.962188       12.090382
 O        12.670815        5.749357        5.303062
 H        12.579308        6.566639        5.762061
 H        11.668389        5.498705        5.122926
 O        -0.094872       10.358069       11.001115
 H         0.018019       10.901442       11.801361
 H        -0.430971        9.373099       11.262995
 O        10.649142        2.665224       -0.382204
 H        10.681734        3.421285       -1.062655
 H        10.562299        1.848552       -0.940745
 O        19.099739        7.872086       17.499033
 H        18.766962        8.785538       17.915361
 H        18.252859        7.346252       17.357294
 O        11.132918        9.093877        8.759268
 H        10.816645        8.406314        9.449477
 H        11.655188        9.779078        9.386789
 O         6.805525        4.158229        9.448975
 H         7.244845        4.332587        8.579281
 H         5.959985        3.603038        9.324010
 O         8.703662       13.596076        4.646631
 H         9.254308       13.030277        4.006970
 H         9.122029       13.408350        5.553255
 O        -0.116842        8.376943        2.053076
 H         0.586856        7.687281        2.047654
 H        -0.144886        8.841256        2.958543
 O         7.236189       10.478045       16.707640
 H         7.251888        9.666532       17.239740
 H         7.433096       11.185051       17.420744
 O        12.995683       17.648518        0.723384
 H        12.021622       17.852240        0.538035
 H        13.157894       17.116379       -0.090230
 O        16.720575       14.235779        2.231356
 H        16.169981       13.780495        1.507112
 H        16.798965       15.125208        1.798392
 O         3.519168       10.203670        3.834535
 H         3.620908        9.820932        4.689334
 H         2.647833       10.723767        3.768599
 O         7.253006       -1.175427       -1.051943
 H         6.430254       -1.166896       -0.489535
 H         8.070386       -0.852358       -0.522127
 O        11.953560        7.205712       13.590002
 H        11.599413        7.172371       12.607758
 H        12.420567        6.370551       13.784961
 O        10.005681       12.693603        7.062093
 H        10.811060       12.168742        6.783713
 H        10.391280       13.407916        7.679130
 O         5.028018       -0.941806        0.220591
 H         4.394169       -0.677740       -0.463363
 H         4.952604       -1.842911        0.426204
 O         3.220576       -0.512827       -1.825049
 H         3.367449       -0.962430       -2.701912
 H         2.271672       -0.243860       -1.799582
 O         8.718071        0.690187        2.529634
 H         8.950947        0.102001        3.313517
 H         9.186343        0.292641        1.728948
 O        15.921375       12.594808        8.302549
 H        16.273581       13.076894        9.107667
 H        15.568200       11.649729        8.520308
 O         4.291606       10.372386        7.314416
 H         4.393135       10.679998        8.266293
 H         5.266628       10.457891        6.979016
 O        10.069393        3.057760        2.637972
 H         9.670025        2.170687        2.846879
 H         9.886188        3.035988        1.712058
 O         1.439981        3.075833       11.385915
 H         1.988745        3.808995       11.712312
 H         0.638901        3.574792       11.223106
 O         6.917462        1.964816       14.097404
 H         7.092739        0.996494       13.963192
 H         6.598783        1.896184       15.084899
 O         3.725008        5.933306        6.721646
 H         4.541424        5.385148        6.586027
 H         3.017676        5.253272        6.322469
 O        16.677105        6.381089       11.155713
 H        17.339596        7.148945       11.372356
 H        17.070127        6.019977       10.264184
 O         4.386447        3.255442        1.172187
 H         4.927837        2.529542        1.573109
 H         4.368737        3.935239        1.899734
 O        12.730577       12.909694       11.902035
 H        12.291590       13.784269       12.081079
 H        12.686468       12.433061       12.799082
 O        12.545969       10.931735        9.873743
 H        13.381184       10.710464       10.363820
 H        12.032325       11.488037       10.557676
 O        16.504385       14.098521       10.248661
 H        15.764050       14.762667       10.013788
 H        16.147497       13.689562       11.156847
 O         5.006519       11.383452       15.581643
 H         4.229100       10.771115       15.863611
 H         5.890729       11.003040       15.980306
 O         6.848777       11.905789        3.749202
 H         7.312511       12.728456        4.138414
 H         5.879321       12.069023        3.694811
 O         3.431703        8.533432       11.455315
 H         3.896073        9.175726       12.018055
 H         2.950318        9.129593       10.782142
 O        13.856047        4.144103       11.244613
 H        13.631022        4.824847       10.552217
 H        13.640023        4.504969       12.154135
 O         4.429484       13.961488        3.389490
 H         5.080956       14.535819        2.925645
 H         3.622924       14.023106        2.807856
 O        14.050884       15.751626        6.359898
 H        13.200905       16.224392        6.519833
 H        13.828938       14.899321        6.798951
 O        13.664910       13.039678        7.280663
 H        12.978415       12.963851        7.975166
 H        14.591818       12.876815        7.683220
 O         4.004203       12.212799       10.997458
 H         4.453037       13.100602       10.943794
 H         4.514429       11.681446       11.722084
 O         1.249707        5.981870       14.557466
 H         1.353361        6.886327       14.099329
 H         1.922263        5.380575       14.119292
 O         6.635513        7.052545        7.838415
 H         6.176269        7.916084        7.654361
 H         6.502120        6.888915        8.796257
 O        14.445029        7.816685       11.171572
 H        15.242945        7.293297       11.040817
 H        13.756331        7.244981       11.645247
 O        15.269474        4.924161        3.932659
 H        14.408222        5.076365        4.367487
 H        15.878837        4.526074        4.656800
 O         4.827245        1.790918       12.226830
 H         5.320848        2.113225       12.974323
 H         4.021739        1.355472       12.565987
 O         0.758591       12.772250       14.984083
 H        -0.223959       12.439417       15.052681
 H         1.276308       11.886973       14.962426
 O         5.610974        5.596291       12.957253
 H         5.494801        5.902421       12.018301
 H         5.125838        6.338122       13.457750
 O         4.846025        1.419084        5.241154
 H         4.462790        1.070989        6.016581
 H         4.669955        0.630480        4.609366
 O        13.168629        5.217791        8.488043
 H        13.423573        6.126569        8.113794
 H        13.903265        4.651448        8.194216
 O        13.710718        9.081473       -0.591698
 H        13.097410        8.315539       -0.806115
 H        14.023902        8.864186        0.350065
 O        12.308195       11.342007        5.592604
 H        12.920612       11.969693        6.070874
 H        12.329037       10.514005        6.108005
 O         5.368471        6.840016       10.557387
 H         4.629672        6.229256       10.028728
 H         4.705628        7.473842       10.927960
 O        10.800935        6.736346       11.241444
 H        10.369192        5.925126       11.555079
 H         9.910951        7.281381       11.191828
 O        10.289299        4.426310        4.992934
 H        10.364302        4.005531        4.055021
 H         9.315117        4.523338        5.241771
 O         7.687364        4.569183       14.018074
 H         7.420656        3.654163       13.826528
 H         6.997980        5.109790       13.531813
 O         5.183433        5.244563        3.400833
 H         6.018255        5.313637        2.885739
 H         4.705448        6.108468        3.470805
 O         2.064160       10.305303       15.753246
 H         1.631510        9.830536       16.518835
 H         1.782998        9.707371       14.973317
 O        15.467949       12.625940       12.244409
 H        15.553041       12.886929       13.227160
 H        14.528604       12.902900       11.974736
 O        10.474600       11.786506        3.651743
 H        11.241947       11.849419        4.281381
 H        10.293355       10.788779        3.740772
 O        11.262619        0.162857       -2.240775
 H        10.688901        0.362931       -3.032620
 H        12.122282        0.706550       -2.385887
 O        14.145350        7.900963        8.444363
 H        14.594939        8.556701        7.779111
 H        13.853758        8.381275        9.231263
 O         5.107522       10.359179       12.868462
 H         6.055296       10.018968       12.719117
 H         5.168297       10.781915       13.765099
 O         3.458364        5.348785        9.348413
 H         3.482468        5.586761        8.381712
 H         3.774538        4.395428        9.321482
 O        13.388070       16.854109       -2.355782
 H        14.290256       16.585249       -2.120925
 H        13.427167       17.672321       -2.908594
 O         7.586903        9.699155       12.764364
 H         8.177300        9.974597       13.482657
 H         8.147099       10.100599       11.971049
 O         4.699720        7.942670       14.399641
 H         4.639872        8.852658       14.090963
 H         4.012117        7.886411       15.108120
 O         9.120782        3.261994       10.746095
 H         8.232252        3.468651       10.285046
 H         9.203333        2.204748       10.741487
 O         1.295843       12.036240        3.860328
 H         1.751682       12.281901        4.770642
 H         1.571123       12.766788        3.303403
 O         1.088441        1.154088       -1.763052
 H         1.423589        1.523794       -0.880669
 H         1.277976        1.911539       -2.394995
 O         0.258161        3.020835        1.898961
 H        -0.714872        2.905484        1.656710
 H         0.276124        3.559445        2.691216
 O        10.977724       12.116260        0.851990
 H        10.470112       11.216366        0.583912
 H        10.954762       12.059075        1.856246
 O         8.324553        7.522528       11.330566
 H         8.051151        8.171896       12.088986
 H         7.498088        7.124430       10.976122
 O        16.191639        1.300178        4.766786
 H        15.293344        1.161977        5.229411
 H        16.243931        0.777162        3.929008
 O         2.448961       12.376495        6.204757
 H         1.845258       12.395465        7.028056
 H         3.228414       11.792378        6.520686
 O         2.879607        8.529445        5.906251
 H         3.209369        7.689652        6.272050
 H         3.393331        9.110659        6.546685
 O         3.346434        4.323601       13.762728
 H         3.696440        3.887962       14.579905
 H         4.093438        4.731771       13.300543
 O        14.360031        0.764314        9.755599
 H        13.406681        0.568017        9.483109
 H        14.295940        1.358225       10.524731
 O         9.518841        0.639166       10.655280
 H        10.187883        0.328875        9.882442
 H         8.970554       -0.194149       10.851308
 O         9.672856       14.659315        0.187971
 H         9.904182       13.782839        0.536048
 H        10.328812       14.799062       -0.510668
 C        11.057829        2.434277        7.929224
 H        11.492480        2.372772        6.909452
 H        10.185399        1.823367        8.116279
 H        11.862566        2.334107        8.610876
 Cl       11.701953        0.044812        8.628914
 N        10.634334        3.862830        8.250246
 H        10.236755        3.778955        9.187996
 H         9.881991        4.178815        7.590961
 H        11.511764        4.540658        8.308736
 O        12.289874        8.645115        6.366013
 H        11.436416        8.766763        5.856627
 H        12.059081        8.695712        7.318077
 O         7.927651       19.750002        6.903595
 H         7.051939       19.424788        6.502759
 H         7.731672       20.715300        6.848669
 O         6.764146       10.148314        6.279162
 H         6.890673       10.470221        5.370177
 H         7.584893       10.238659        6.879651
 O         8.194488        7.579473        5.060960
 H         7.625760        7.575087        4.270061
 H         7.659348        8.160316        5.672576
