 327
water nh3 ch3cl
 O           -1.474   4.214   1.706 
 H           -1.434   3.236   1.738 
 H           -0.629   4.401   1.227 
 O            1.463   2.888  10.982 
 H            1.115   2.891  11.907 
 H            2.113   2.183  10.941 
 O            0.257   1.769   7.093 
 H           -0.670   2.095   7.213 
 H            0.212   1.608   6.071 
 O            6.704  13.074  12.539 
 H            5.789  13.555  12.532 
 H            6.729  12.228  11.879 
 O           16.616  14.590   8.263 
 H           16.097  13.806   8.596 
 H           15.963  15.306   7.969 
 O            6.783  11.015  10.883 
 H            7.519  10.883  10.154 
 H            5.986  10.477  10.585 
 O           10.233   8.462  18.951 
 H            9.520   8.437  19.637 
 H            9.823   7.987  18.181 
 O            3.981  13.872  12.456 
 H            3.710  14.440  11.665 
 H            3.922  14.337  13.336 
 O            1.734   3.098  17.572 
 H            2.679   3.028  17.877 
 H            1.283   3.548  18.331 
 O            4.338  15.922   4.915 
 H            3.577  15.353   4.671 
 H            5.198  15.545   4.681 
 O            2.980   9.881  11.273 
 H            2.075  10.344  11.162 
 H            3.321  10.337  12.119 
 O            9.126   7.285   1.493 
 H            8.619   6.518   1.826 
 H           10.045   6.886   1.314 
 O            1.447   8.319   7.992 
 H            2.419   8.011   7.793 
 H            0.992   7.550   7.461 
 O           13.782   9.846   5.490 
 H           13.132   9.492   6.154 
 H           14.240   9.147   4.969 
 O            8.815  10.637   9.280 
 H            9.821  10.715   9.520 
 H            8.964  11.134   8.402 
 O           11.855   9.833  16.201 
 H           12.442   9.070  16.221 
 H           11.926  10.243  17.100 
 O            4.484   2.530   8.182 
 H            3.477   2.785   7.940 
 H            4.506   1.574   7.920 
 O            1.166   7.718  14.102 
 H            1.963   7.600  13.482 
 H            0.428   7.190  13.825 
 O           12.581   7.110   4.403 
 H           11.782   7.687   4.297 
 H           12.117   6.314   4.875 
 O           17.606  15.495  10.743 
 H           17.414  15.100   9.838 
 H           16.765  15.192  11.218 
 O            8.089   8.463   5.415 
 H            8.203   8.203   6.376 
 H            7.320   7.894   5.141 
 O           13.836   2.705   9.407 
 H           14.751   2.906   9.648 
 H           13.456   2.026  10.024 
 O            7.514   5.298  17.713 
 H            6.981   4.497  17.355 
 H            8.167   4.858  18.370 
 O           14.473   4.236  19.493 
 H           13.864   3.741  20.154 
 H           14.157   4.136  18.596 
 O            9.085   9.615  15.250 
 H           10.052   9.726  15.538 
 H            9.016   8.655  15.644 
 O            8.738   2.641  15.624 
 H            8.012   2.769  16.295 
 H            8.269   2.477  14.731 
 O           10.916   5.009   5.867 
 H           10.886   5.485   6.720 
 H            9.935   4.861   5.718 
 O            0.575  10.894  10.758 
 H            0.098  11.323  11.540 
 H           -0.044  10.079  10.550 
 O           10.597   1.083   1.970 
 H            9.950   1.500   1.377 
 H           10.906   0.268   1.446 
 O           16.659   6.022  20.327 
 H           16.330   6.843  19.762 
 H           16.012   5.371  19.893 
 O           11.471  11.280   9.838 
 H           11.433  11.933  10.634 
 H           12.229  10.800  10.051 
 O            5.673   2.364  13.084 
 H            5.222   1.574  13.468 
 H            5.361   2.512  12.171 
 O            9.918  12.483   4.354 
 H           10.912  12.423   4.289 
 H            9.795  13.493   4.230 
 O            0.101   7.744   3.965 
 H            0.155   7.839   2.997 
 H           -0.768   7.278   4.054 
 O            6.944  10.774  19.394 
 H            7.343   9.919  19.767 
 H            7.486  10.889  18.581 
 O           13.425  16.514   1.919 
 H           12.433  16.354   1.862 
 H           13.803  16.050   1.089 
 O           17.574  13.989   4.026 
 H           16.664  14.337   4.011 
 H           17.865  13.766   3.048 
 O            4.358   9.373   4.962 
 H            5.232   9.291   4.598 
 H            4.133  10.356   5.006 
 O            6.125  -0.786   1.674 
 H            5.299  -1.331   1.676 
 H            6.916  -1.151   1.227 
 O           12.029   4.567  14.378 
 H           10.987   4.710  14.594 
 H           12.444   4.255  15.234 
 O            9.511  12.040   7.141 
 H            8.609  12.304   6.902 
 H            9.685  11.773   6.250 
 O            3.589  -2.023   1.915 
 H            2.973  -2.288   1.206 
 H            3.896  -2.857   2.223 
 O            2.063  -3.391   0.193 
 H            2.750  -3.591  -0.493 
 H            1.842  -4.208   0.723 
 O            6.669  -0.313   4.238 
 H            6.606  -1.009   4.940 
 H            6.716  -0.782   3.348 
 O           15.168  12.527   8.758 
 H           15.148  11.887   9.574 
 H           15.455  11.895   8.056 
 O            4.602  10.187   9.125 
 H            3.865  10.195   9.773 
 H            4.745  11.128   8.803 
 O            8.299   1.368   5.407 
 H            7.818   0.618   4.920 
 H            7.986   1.162   6.344 
 O            0.441   3.323  13.539 
 H            1.218   3.629  14.143 
 H           -0.082   4.174  13.503 
 O            4.268   0.281  14.701 
 H            5.089  -0.101  15.084 
 H            3.705   0.404  15.500 
 O            2.127   3.735   7.212 
 H            2.022   4.554   6.661 
 H            1.408   3.021   7.068 
 O           14.006   6.316  10.620 
 H           13.200   5.701  10.458 
 H           14.809   5.866  10.214 
 O            4.209   3.117   3.346 
 H            4.191   2.372   3.977 
 H            4.262   4.019   3.826 
 O           12.443  12.176  14.511 
 H           11.846  12.893  14.898 
 H           12.363  11.373  15.051 
 O           11.298  12.544  12.100 
 H           11.726  12.425  13.010 
 H           10.560  13.110  12.420 
 O           15.318  14.600  12.146 
 H           14.507  14.736  11.546 
 H           15.195  13.730  12.578 
 O            5.070  10.679  17.348 
 H            4.660   9.775  17.115 
 H            5.733  10.571  18.069 
 O            7.059  12.756   6.147 
 H            6.224  12.719   6.715 
 H            7.009  12.016   5.529 
 O            3.232   7.470  12.324 
 H            4.018   7.596  12.999 
 H            3.112   8.289  11.778 
 O           10.782   3.312  12.214 
 H            9.887   3.127  12.592 
 H           11.371   3.784  12.922 
 O            4.548  12.295   7.297 
 H            4.344  13.232   7.354 
 H            3.918  12.047   6.559 
 O           10.549  15.369   4.553 
 H           10.574  15.775   3.668 
 H            9.925  15.883   5.166 
 O           12.584  13.398   8.763 
 H           12.044  12.649   9.023 
 H           13.459  12.977   8.618 
 O            4.063  11.157  13.244 
 H            4.416  12.033  12.930 
 H            4.890  10.812  13.879 
 O            2.536   6.720  16.178 
 H            1.946   7.060  15.401 
 H            2.635   5.754  15.900 
 O            6.071   6.730   8.493 
 H            5.530   7.317   7.873 
 H            5.496   6.354   9.253 
 O           14.167   5.787  13.440 
 H           14.106   5.958  12.456 
 H           13.284   5.495  13.696 
 O           12.722   3.100   6.053 
 H           11.928   3.812   6.079 
 H           12.361   2.251   5.882 
 O            1.952   0.363  16.319 
 H            1.910   1.009  17.071 
 H            1.126   0.488  15.802 
 O            0.969   9.280  16.222 
 H            0.708   8.942  15.311 
 H            1.862   8.849  16.385 
 O            4.900   4.536  14.583 
 H            5.037   3.953  13.797 
 H            5.120   5.518  14.399 
 O            4.258   0.013   7.497 
 H            3.319  -0.052   7.797 
 H            4.146   0.252   6.543 
 O           11.767   4.755   9.833 
 H           12.410   4.024   9.512 
 H           11.280   4.178  10.526 
 O           11.837   6.872   1.599 
 H           12.165   5.908   1.427 
 H           12.030   6.877   2.587 
 O           12.321   8.878   7.636 
 H           12.941   8.796   8.373 
 H           12.041   7.934   7.541 
 O            4.028   5.856  10.000 
 H            3.094   5.666   9.817 
 H            3.818   6.279  10.902 
 O            9.426   5.098  14.694 
 H            8.786   4.379  15.039 
 H            9.161   5.390  13.747 
 O            8.068   4.435   5.223 
 H            8.269   3.449   5.250 
 H            7.318   4.464   5.926 
 O            6.206   3.235  16.491 
 H            5.384   3.053  17.003 
 H            5.727   3.728  15.776 
 O            4.347   5.493   4.745 
 H            4.842   5.220   5.581 
 H            3.455   5.766   5.009 
 O            4.964   7.928  16.464 
 H            5.491   7.654  17.202 
 H            4.049   7.455  16.461 
 O           15.108  12.177  13.289 
 H           15.825  12.092  13.921 
 H           14.279  12.045  13.850 
 O           11.936  10.558   3.703 
 H           12.756  10.347   4.256 
 H           11.206   9.990   4.022 
 O           11.011  -0.740   0.086 
 H           10.083  -1.044  -0.181 
 H           11.259  -0.160  -0.709 
 O           14.275   8.806   9.719 
 H           15.064   8.694   9.129 
 H           14.144   7.888  10.089 
 O            6.120  10.728  14.778 
 H            6.767   9.992  14.533 
 H            5.983  10.591  15.823 
 O            1.342   5.150   9.598 
 H            1.480   4.549   8.837 
 H            1.427   4.427  10.408 
 O           11.856  15.912  -1.699 
 H           12.749  16.072  -1.347 
 H           11.505  16.762  -2.098 
 O            8.054   8.741  12.738 
 H            8.532   9.164  13.470 
 H            7.702   9.537  12.279 
 O            6.131   7.240  18.849 
 H            6.713   6.465  18.545 
 H            5.279   6.768  19.296 
 O            8.334   2.114  13.047 
 H            7.352   2.173  12.956 
 H            8.593   1.164  12.754 
 O            2.968  11.690   5.285 
 H            2.059  11.388   5.670 
 H            2.746  12.547   4.738 
 O           -0.597   1.044  -0.533 
 H           -0.048   0.409  -1.002 
 H           -0.163   1.953  -0.734 
 O            0.161   0.628   4.400 
 H           -0.309   1.222   3.715 
 H           -0.585   0.285   4.970 
 O            8.256  11.382   2.243 
 H            8.629  10.734   1.571 
 H            8.976  11.648   2.874 
 O            5.600   7.332  13.860 
 H            6.265   7.762  13.342 
 H            5.627   7.727  14.808 
 O           12.760   0.411   5.778 
 H           11.906   0.089   5.291 
 H           12.740  -0.074   6.662 
 O            0.761  10.797   6.861 
 H            0.025  10.491   6.238 
 H            1.090   9.883   7.256 
 O            4.128   8.189   7.368 
 H            4.328   8.984   8.012 
 H            4.177   8.535   6.436 
 O            2.287   4.308  15.289 
 H            2.196   3.798  16.146 
 H            3.215   4.279  14.981 
 O           12.851   0.479  10.773 
 H           12.507  -0.344  10.335 
 H           12.480   0.490  11.689 
 O            8.849  -0.454  12.081 
 H            9.139  -0.466  11.135 
 H            8.187  -1.211  12.113 
 O            8.278  13.130  -0.226 
 H            8.340  12.221   0.166 
 H            7.661  12.996  -0.947 
 C            8.156   2.865   9.255 
 H            7.107   3.280   9.324 
 H            8.800   2.853  10.145 
 H            8.653   3.380   8.384 
 Cl           8.028   1.104   8.691 
 N            8.808   5.782  12.151 
 H            8.408   6.755  12.089 
 H            8.089   5.151  11.800 
 H            9.687   5.567  11.616 
 O           10.404   6.408   8.079 
 H           10.612   5.722   8.768 
 H            9.643   6.993   8.191 
 O            5.143  18.323  10.660 
 H            4.931  17.953   9.742 
 H            4.628  19.158  10.677 
 O            8.210   8.096   8.037 
 H            7.486   7.654   8.571 
 H            8.569   8.876   8.518 
 O            5.842   4.293   6.765 
 H            5.739   5.001   7.520 
 H            5.434   3.543   7.208 
